Version 4.1
SHEET 1 1480 680
WIRE 848 64 784 64
WIRE 960 64 928 64
WIRE 1088 64 1040 64
WIRE 1200 64 1088 64
WIRE 1296 80 1264 80
WIRE 1312 80 1296 80
WIRE 1424 80 1392 80
WIRE 1200 96 1168 96
WIRE 16 112 -48 112
WIRE 112 112 80 112
WIRE 224 112 192 112
WIRE 320 112 224 112
WIRE 784 112 784 64
WIRE 400 128 384 128
WIRE 432 128 400 128
WIRE 544 128 512 128
WIRE 1088 128 1088 64
WIRE 1424 128 1424 80
WIRE -48 144 -48 112
WIRE 320 144 288 144
WIRE 224 160 224 112
WIRE 544 160 544 128
WIRE 1168 160 1168 96
WIRE 1296 160 1296 80
WIRE 1296 160 1168 160
WIRE 288 192 288 144
WIRE 400 192 400 128
WIRE 400 192 288 192
WIRE 784 240 784 192
WIRE 1088 240 1088 192
WIRE 1424 240 1424 192
WIRE -48 256 -48 224
WIRE 224 256 224 208
WIRE 544 256 544 224
FLAG 544 256 0
FLAG 224 256 0
FLAG -48 256 0
FLAG 784 240 0
FLAG 1088 240 0
FLAG 1424 240 0
SYMBOL Componentes\\FDNR\\FDNR 224 192 R0
WINDOW 39 20 16 Left 0
SYMATTR InstName X1
SYMATTR SpiceLine wn=138.23k Rn=86.53 R=1.822 C=0.5488
SYMBOL res 208 96 R90
WINDOW 0 0 56 VBottom 2
WINDOW 3 32 56 VTop 2
SYMATTR InstName R1
SYMATTR Value 138.23
SYMBOL cap 80 96 R90
WINDOW 0 0 32 VBottom 2
WINDOW 3 32 32 VTop 2
SYMATTR InstName C1
SYMATTR Value 83.6n
SYMBOL opamp 352 192 M180
SYMATTR InstName U1
SYMBOL res 528 112 R90
WINDOW 0 0 56 VBottom 2
WINDOW 3 32 56 VTop 2
SYMATTR InstName R2
SYMATTR Value 1153.79
SYMBOL cap 528 160 R0
SYMATTR InstName C2
SYMATTR Value 10n
SYMBOL voltage -48 128 R0
WINDOW 123 24 124 Left 2
WINDOW 39 0 0 Left 0
SYMATTR InstName V1
SYMATTR Value ""
SYMATTR Value2 AC 1
SYMBOL voltage 784 96 R0
WINDOW 123 24 124 Left 2
WINDOW 39 0 0 Left 0
SYMATTR InstName V2
SYMATTR Value ""
SYMATTR Value2 AC 1
SYMBOL res 944 48 R90
WINDOW 0 0 56 VBottom 2
WINDOW 3 32 56 VTop 2
SYMATTR InstName R3
SYMATTR Value 86.53
SYMBOL ind 1056 48 R90
WINDOW 0 5 56 VBottom 2
WINDOW 3 32 56 VTop 2
SYMATTR InstName L1
SYMATTR Value 1m
SYMBOL cap 1072 128 R0
SYMATTR InstName C3
SYMATTR Value 45.88n
SYMBOL opamp 1232 144 M180
SYMATTR InstName U2
SYMBOL res 1408 64 R90
WINDOW 0 0 56 VBottom 2
WINDOW 3 32 56 VTop 2
SYMATTR InstName R4
SYMATTR Value 1153.79
SYMBOL cap 1408 128 R0
SYMATTR InstName C4
SYMATTR Value 10n
TEXT -80 280 Left 2 !.ac dec 100 1 100k
