Version 4.1
SHEET 1 880 680
WIRE 96 48 -64 48
WIRE 272 48 160 48
WIRE -176 160 -256 160
WIRE -64 160 -64 48
WIRE -64 160 -96 160
WIRE -48 160 -64 160
WIRE 80 160 32 160
WIRE 160 160 80 160
WIRE -256 176 -256 160
WIRE 272 176 272 48
WIRE 272 176 224 176
WIRE 432 176 272 176
WIRE 560 176 512 176
WIRE 160 192 128 192
WIRE 560 192 560 176
WIRE 80 208 80 160
WIRE 128 240 128 192
WIRE 272 240 272 176
WIRE 272 240 128 240
FLAG 80 272 0
FLAG -256 256 0
FLAG 560 256 0
SYMBOL opamp 192 240 M180
SYMATTR InstName U1
SYMBOL cap 160 32 R90
WINDOW 0 0 32 VBottom 2
WINDOW 3 32 32 VTop 2
SYMATTR InstName C1
SYMBOL cap 96 272 R180
WINDOW 0 24 56 Left 2
WINDOW 3 24 8 Left 2
SYMATTR InstName C2
SYMBOL res -80 144 R90
WINDOW 0 0 56 VBottom 2
WINDOW 3 32 56 VTop 2
SYMATTR InstName R1
SYMBOL res 48 144 R90
WINDOW 0 0 56 VBottom 2
WINDOW 3 32 56 VTop 2
SYMATTR InstName R2
SYMBOL voltage -256 160 R0
SYMATTR InstName V1
SYMBOL res 528 160 R90
WINDOW 0 0 56 VBottom 2
WINDOW 3 32 56 VTop 2
SYMATTR InstName R3
SYMBOL cap 544 192 R0
SYMATTR InstName C3
