Version 4.1
SHEET 1 1348 680
WIRE 128 16 -32 16
WIRE 288 16 128 16
WIRE 464 32 336 32
WIRE 336 96 336 32
WIRE 384 96 336 96
WIRE -32 112 -32 16
WIRE 64 112 32 112
WIRE 128 112 128 16
WIRE 176 112 128 112
WIRE 288 112 288 16
WIRE 288 112 240 112
WIRE 320 112 288 112
WIRE 464 112 464 32
WIRE 464 112 448 112
WIRE 672 112 544 112
WIRE 320 128 320 112
WIRE 384 128 320 128
WIRE -32 144 -160 144
WIRE 64 144 64 112
WIRE 112 144 64 144
WIRE 176 144 112 144
WIRE 672 144 672 112
WIRE 320 160 320 128
WIRE 672 224 672 208
FLAG 112 208 0
FLAG 320 224 0
FLAG 240 144 0
FLAG 32 144 0
FLAG -160 224 0
FLAG 672 224 0
SYMBOL Componentes\\OTA\\OTA 0 128 M180
WINDOW 39 -53 -46 Left 2
SYMATTR SpiceLine gm={gm1}
SYMATTR InstName X1
SYMBOL Componentes\\OTA\\OTA 208 128 M180
WINDOW 39 -39 -41 Left 2
SYMATTR SpiceLine gm={gm2}
SYMATTR InstName X2
SYMBOL opamp 416 48 R0
SYMATTR InstName U1
SYMBOL cap 304 160 R0
SYMATTR InstName C2
SYMATTR Value {Q/w0}
SYMBOL cap 96 144 R0
WINDOW 3 37 57 Left 2
SYMATTR Value {Q/w0}
SYMATTR InstName C1
SYMBOL cap 656 144 R0
SYMATTR InstName C3
SYMATTR Value {1/w0}
SYMBOL res 560 96 R90
WINDOW 0 0 56 VBottom 2
WINDOW 3 32 56 VTop 2
SYMATTR InstName R1
SYMATTR Value {Ro}
SYMBOL voltage -160 128 R0
WINDOW 123 24 124 Left 2
WINDOW 39 0 0 Left 0
SYMATTR Value2 AC 1
SYMATTR InstName V1
SYMATTR Value ""
TEXT -32 272 Left 2 !.ac dec 10000 100m 10
TEXT -32 296 Left 2 !.param Ro=1
TEXT -32 320 Left 2 !.param w0=1.2526*2*pi
TEXT -32 344 Left 2 !.param Q=1
TEXT -32 368 Left 2 !.param gm1=1
TEXT -32 392 Left 2 !.param gm2=gm1
