Version 4.1
SHEET 1 880 680
WIRE 320 -192 -48 -192
WIRE -256 -160 -256 -192
WIRE -48 -32 -48 -192
WIRE -48 -32 -464 -32
WIRE -32 -32 -48 -32
WIRE 320 -32 320 -192
WIRE 320 -32 192 -32
WIRE -464 0 -464 -32
WIRE -448 0 -464 0
WIRE 160 0 160 -48
WIRE -64 16 -224 16
WIRE -256 32 -256 -80
WIRE 192 32 192 -32
WIRE 464 32 336 32
WIRE -224 64 -224 16
WIRE -64 96 -64 16
WIRE -32 96 -64 96
WIRE 336 96 336 32
WIRE 384 96 336 96
WIRE 464 112 464 32
WIRE 464 112 448 112
WIRE 672 112 544 112
WIRE -448 128 -720 128
WIRE -64 128 -64 96
WIRE 320 128 320 -32
WIRE 384 128 320 128
WIRE 672 144 672 112
WIRE 320 160 320 128
WIRE -64 208 -64 192
WIRE 672 224 672 208
WIRE -384 464 -384 432
WIRE -240 464 -240 432
FLAG 320 224 0
FLAG -720 208 0
FLAG 672 224 0
FLAG -64 208 0
FLAG -384 464 0
FLAG -240 464 0
FLAG -384 352 Vcc
FLAG -352 0 Vcc
FLAG 64 -32 Vcc
FLAG -240 352 Vss
FLAG -352 128 Vss
FLAG 64 96 Vss
FLAG 160 -128 0
FLAG -256 -192 0
SYMBOL opamp 416 48 R0
SYMATTR InstName U1
SYMBOL voltage -720 112 R0
WINDOW 123 24 124 Left 2
WINDOW 39 0 0 Left 0
SYMATTR Value2 AC 1
SYMATTR InstName V1
SYMATTR Value ""
SYMBOL Componentes\\LM13700-spice-model-master\\LM13700-spice-model-master\\LM13700 -384 -16 R0
SYMATTR InstName U2
SYMBOL res 560 96 R90
WINDOW 0 0 56 VBottom 2
WINDOW 3 32 56 VTop 2
SYMATTR InstName R1
SYMATTR Value 8471
SYMBOL cap -48 192 R180
WINDOW 0 24 56 Left 2
WINDOW 3 24 8 Left 2
SYMATTR InstName C1
SYMATTR Value 100n
SYMBOL cap 336 224 R180
WINDOW 0 24 56 Left 2
WINDOW 3 24 8 Left 2
SYMATTR InstName C2
SYMATTR Value 100n
SYMBOL cap 688 208 R180
WINDOW 0 24 56 Left 2
WINDOW 3 24 8 Left 2
SYMATTR InstName C3
SYMATTR Value 10n
SYMBOL Componentes\\LM13700-spice-model-master\\LM13700-spice-model-master\\LM13700 32 -48 R0
SYMATTR InstName U3
SYMBOL voltage -384 336 R0
WINDOW 123 0 0 Left 0
WINDOW 39 0 0 Left 0
SYMATTR InstName V2
SYMATTR Value 15
SYMBOL voltage -240 336 R0
WINDOW 123 0 0 Left 0
WINDOW 39 0 0 Left 0
SYMATTR InstName V3
SYMATTR Value -15
SYMBOL current -256 -160 R0
WINDOW 3 -115 32 Left 2
SYMATTR Value 60µ
SYMATTR InstName I1
SYMBOL current 160 -128 R0
WINDOW 3 -89 28 Left 2
WINDOW 123 0 0 Left 0
WINDOW 39 0 0 Left 0
SYMATTR Value 60µ
SYMATTR InstName I2
TEXT -432 272 Left 2 !.ac dec 10000 1 10k
TEXT -72 -248 Left 2 !.lib lm13700.sub
